@<TRIPOS>MOLECULE
MOL
   16    17     1     0     0
SMALL
bcc


@<TRIPOS>ATOM
      1 CG           1.1480     0.6520     0.1940 cc         6 MOL      -0.187200
      2 CD1          2.3190     0.6640    -0.4820 cd         6 MOL      -0.109100
      3 CD2          1.5080     0.5640     1.6060 ca         6 MOL      -0.095800
      4 CE2          2.9280     0.5150     1.7100 ca         6 MOL      -0.047200
      5 CE3          0.7790     0.5240     2.8120 ca         6 MOL      -0.082000
      6 NE1          3.3710     0.5600     0.4110 na         6 MOL      -0.196400
      7 CZ2          3.5990     0.4450     2.9380 ca         6 MOL      -0.146000
      8 CZ3          1.4390     0.4330     4.0530 ca         6 MOL      -0.159000
      9 CH2          2.8420     0.4070     4.1200 ca         6 MOL      -0.113000
     10 H01          0.1440     0.6980    -0.2280 ha         6 MOL       0.156000
     11 HD1          2.4120     0.7330    -1.5580 h4         6 MOL       0.163000
     12 HE1          4.3600     0.5360     0.1560 hn         6 MOL       0.297700
     13 HE3         -0.2990     0.5710     2.7730 ha         6 MOL       0.133000
     14 HZ2          4.6790     0.4180     2.9610 ha         6 MOL       0.130000
     15 HZ3          0.8620     0.4000     4.9660 ha         6 MOL       0.128000
     16 HH2          3.3340     0.3600     5.0810 ha         6 MOL       0.128000
@<TRIPOS>BOND
     1     1     2 2   
     2     1     3 1   
     3     1    10 1   
     4     2     6 1   
     5     2    11 1   
     6     3     4 ar  
     7     3     5 ar  
     8     4     6 1   
     9     4     7 ar  
    10     5     8 ar  
    11     5    13 1   
    12     6    12 1   
    13     7     9 ar  
    14     7    14 1   
    15     8     9 ar  
    16     8    15 1   
    17     9    16 1   
@<TRIPOS>SUBSTRUCTURE
     1 MOL         1 TEMP              0 ****  ****    0 ROOT
